LTspice 26.0.1 for Windows
Circuit: C:\Users\Shah\Desktop\university\electrium\esc-w26\sims\input-protection\in-prot.net
Start Time: Wed Mar 25 06:21:21 2026
solver = Normal
Maximum thread count: 22
tnom = 27
temp = 27
method = trap
Direct Newton iteration failed to find operating point.
Starting Gmin stepping
Gmin stepping failed to find operating point. Use".option gminsteps=0" to skip all Gmin stepping.
Starting source stepping with srcstepmethod=0
Source stepping succeeded in finding the operating point.

Total elapsed time: 0.224 seconds.

Files loaded:
C:\Users\Shah\Desktop\university\electrium\esc-w26\sims\input-protection\in-prot.net
C:\Users\Shah\AppData\Local\LTspice\lib\cmp\standard.mos
C:\Users\Shah\AppData\Local\LTspice\lib\sub\LTC4368-1.sub

