LTspice 26.0.1 for Windows
Circuit: C:\Users\Shah\Desktop\university\electrium\esc-w26\sims\input-protection\typical-application.net
Start Time: Sat Mar 28 17:46:31 2026
solver = Normal
Maximum thread count: 22
tnom = 27
temp = 27
method = Gear
Compress1stOrder = true
Compress2ndOrder = true
WARNING: Node n004 is floating.

Instance "m1:M1": Length shorter than recommended for a level 3 MOSFET.
Instance "m1:M2": Length shorter than recommended for a level 3 MOSFET.
Instance "m2:M1": Length shorter than recommended for a level 3 MOSFET.
Instance "m2:M2": Length shorter than recommended for a level 3 MOSFET.
Direct Newton iteration failed to find operating point.
Starting Gmin stepping
Gmin stepping failed to find operating point. Use".option gminsteps=0" to skip all Gmin stepping.
Starting source stepping with srcstepmethod=0
Could not converge to DC with sources off!
Starting source stepping with srcstepmethod=1
Source stepping succeeded in finding the operating point.

Warning: Simulation tolerance relaxed to achieve convergence from 4.0655836283784404e-08 to 4.0655836284784406e-08 seconds.
Warning: Simulation tolerance relaxed to achieve convergence from 4.0655836284784406e-08 to 4.0655836285784408e-08 seconds.
Warning: Simulation tolerance relaxed to achieve convergence from 4.0655836285784408e-08 to 4.0655836286784409e-08 seconds.
Warning: Simulation tolerance relaxed to achieve convergence from 4.0655836286784409e-08 to 4.0655836287784411e-08 seconds.
Warning: Simulation tolerance relaxed to achieve convergence from 4.0655836287784411e-08 to 4.0655836288784413e-08 seconds.
Warning: Simulation tolerance relaxed to achieve convergence from 4.0655836288784413e-08 to 4.0655836289784415e-08 seconds.
Warning: Simulation tolerance relaxed to achieve convergence from 4.0655836289784415e-08 to 4.0655836290784417e-08 seconds.
Warning: Simulation tolerance relaxed to achieve convergence from 4.0655836290784417e-08 to 4.0655836291784418e-08 seconds.
Warning: Simulation tolerance relaxed to achieve convergence from 4.0655836291784418e-08 to 4.0655836292784420e-08 seconds.
Warning: Simulation tolerance relaxed to achieve convergence from 4.0655836292784420e-08 to 4.0655836293784422e-08 seconds.
Warning: Simulation tolerance relaxed to achieve convergence from 4.0655836293784422e-08 to 4.0655836294784424e-08 seconds.
Warning: Simulation tolerance relaxed to achieve convergence from 4.0655836294784424e-08 to 4.0655836295784426e-08 seconds.
Warning: Simulation tolerance relaxed to achieve convergence from 4.0655836295784426e-08 to 4.0655836296784427e-08 seconds.
Warning: Simulation tolerance relaxed to achieve convergence from 4.0655836296784427e-08 to 4.0655836297784429e-08 seconds.
Warning: Simulation tolerance relaxed to achieve convergence from 4.0655836297784429e-08 to 4.0655836298784431e-08 seconds.
Warning: Simulation tolerance relaxed to achieve convergence from 4.0655836298784431e-08 to 4.0655836299784433e-08 seconds.
Warning: Simulation tolerance relaxed to achieve convergence from 4.0655836299784433e-08 to 4.0655836300784435e-08 seconds.
Warning: Simulation tolerance relaxed to achieve convergence from 4.0655836300784435e-08 to 4.0655836301784436e-08 seconds.
Warning: Simulation tolerance relaxed to achieve convergence from 4.0655836301784436e-08 to 4.0655836302784438e-08 seconds.
Warning: Simulation tolerance relaxed to achieve convergence from 4.0655836302784438e-08 to 4.0655836303784440e-08 seconds.
Warning: Simulation tolerance relaxed to achieve convergence from 4.0655836303784440e-08 to 4.0655836304784442e-08 seconds.
Warning: Simulation tolerance relaxed to achieve convergence from 4.0655836304784442e-08 to 4.0655836305784444e-08 seconds.
Warning: Simulation tolerance relaxed to achieve convergence from 4.0655836305784444e-08 to 4.0655836306784445e-08 seconds.
Warning: Simulation tolerance relaxed to achieve convergence from 4.0655836306784445e-08 to 4.0655836307784447e-08 seconds.
Warning: Simulation tolerance relaxed to achieve convergence from 4.0655836307784447e-08 to 4.0655836308784449e-08 seconds.
Warning: Simulation tolerance relaxed to achieve convergence from 4.0655836308784449e-08 to 4.0655836309784451e-08 seconds.
Warning: Simulation tolerance relaxed to achieve convergence from 4.0655836309784451e-08 to 4.0655836310784453e-08 seconds.
Warning: Simulation tolerance relaxed to achieve convergence from 4.0655836310784453e-08 to 4.0655836311784454e-08 seconds.
Warning: Simulation tolerance relaxed to achieve convergence from 4.0655836311784454e-08 to 4.0655836312784456e-08 seconds.
Warning: Simulation tolerance relaxed to achieve convergence from 4.0655836312784456e-08 to 4.0655836313784458e-08 seconds.
Warning: Simulation tolerance relaxed to achieve convergence from 4.0655836313784458e-08 to 4.0655836314784460e-08 seconds.
Warning: Simulation tolerance relaxed to achieve convergence from 4.0655836314784460e-08 to 4.0655836315784462e-08 seconds.
Warning: Simulation tolerance relaxed to achieve convergence from 4.0655836315784462e-08 to 4.0655836316784463e-08 seconds.
Warning: Simulation tolerance relaxed to achieve convergence from 4.0655836316784463e-08 to 4.0655836317784465e-08 seconds.
Warning: Simulation tolerance relaxed to achieve convergence from 4.0655836317784465e-08 to 4.0655836318784467e-08 seconds.
Warning: Simulation tolerance relaxed to achieve convergence from 4.0655836318784467e-08 to 4.0655836319784469e-08 seconds.
Warning: Simulation tolerance relaxed to achieve convergence from 4.0655836319784469e-08 to 4.0655836320784471e-08 seconds.
Warning: Simulation tolerance relaxed to achieve convergence from 4.0655836320784471e-08 to 4.0655836321784472e-08 seconds.
Warning: Simulation tolerance relaxed to achieve convergence from 4.0655836321784472e-08 to 4.0655836322784474e-08 seconds.
Warning: Simulation tolerance relaxed to achieve convergence from 4.0655836322784474e-08 to 4.0655836323784476e-08 seconds.
Warning: Simulation tolerance relaxed to achieve convergence from 4.0655836323784476e-08 to 4.0655836324784478e-08 seconds.
Warning: Simulation tolerance relaxed to achieve convergence from 4.0655836324784478e-08 to 4.0655836325784480e-08 seconds.
Warning: Simulation tolerance relaxed to achieve convergence from 4.0655836325784480e-08 to 4.0655836326784481e-08 seconds.
Warning: Simulation tolerance relaxed to achieve convergence from 4.0655836326784481e-08 to 4.0655836327784483e-08 seconds.
Warning: Simulation tolerance relaxed to achieve convergence from 4.0655836327784483e-08 to 4.0655836328784485e-08 seconds.
Warning: Simulation tolerance relaxed to achieve convergence from 4.0655836328784485e-08 to 4.0655836329784487e-08 seconds.
Warning: Simulation tolerance relaxed to achieve convergence from 4.0655836329784487e-08 to 4.0655836330784489e-08 seconds.
Warning: Simulation tolerance relaxed to achieve convergence from 4.0655836330784489e-08 to 4.0655836331784490e-08 seconds.
Warning: Simulation tolerance relaxed to achieve convergence from 4.0655836331784490e-08 to 4.0655836332784492e-08 seconds.
Warning: Simulation tolerance relaxed to achieve convergence from 4.0655836332784492e-08 to 4.0655836333784494e-08 seconds.
Warning: Simulation tolerance relaxed to achieve convergence from 4.0655836333784494e-08 to 4.0655836334784496e-08 seconds.
Warning: Simulation tolerance relaxed to achieve convergence from 4.0655836334784496e-08 to 4.0655836335784498e-08 seconds.
Warning: Simulation tolerance relaxed to achieve convergence from 4.0655836335784498e-08 to 4.0655836336784499e-08 seconds.
Warning: Simulation tolerance relaxed to achieve convergence from 4.0655836336784499e-08 to 4.0655836337784501e-08 seconds.
Warning: Simulation tolerance relaxed to achieve convergence from 4.0655836337784501e-08 to 4.0655836338784503e-08 seconds.
Warning: Simulation tolerance relaxed to achieve convergence from 4.0655836338784503e-08 to 4.0655836339784505e-08 seconds.
Warning: Simulation tolerance relaxed to achieve convergence from 4.0655836339784505e-08 to 4.0655836340784507e-08 seconds.
Warning: Simulation tolerance relaxed to achieve convergence from 4.0655836340784507e-08 to 4.0655836341784509e-08 seconds.
Warning: Simulation tolerance relaxed to achieve convergence from 4.0655836341784509e-08 to 4.0655836342784510e-08 seconds.
Warning: Simulation tolerance relaxed to achieve convergence from 4.0655836342784510e-08 to 4.0655836343784512e-08 seconds.
Warning: Simulation tolerance relaxed to achieve convergence from 4.0655836343784512e-08 to 4.0655836344784514e-08 seconds.
Warning: Simulation tolerance relaxed to achieve convergence from 4.0655836344784514e-08 to 4.0655836345784516e-08 seconds.
Warning: Simulation tolerance relaxed to achieve convergence from 4.0655836345784516e-08 to 4.0655836346784518e-08 seconds.
Warning: Simulation tolerance relaxed to achieve convergence from 4.0655836346784518e-08 to 4.0655836347784519e-08 seconds.
Warning: Simulation tolerance relaxed to achieve convergence from 4.0655836347784519e-08 to 4.0655836348784521e-08 seconds.
Warning: Simulation tolerance relaxed to achieve convergence from 4.0655836348784521e-08 to 4.0655836349784523e-08 seconds.
Warning: Simulation tolerance relaxed to achieve convergence from 4.0655836349784523e-08 to 4.0655836350784525e-08 seconds.
Warning: Simulation tolerance relaxed to achieve convergence from 4.0655836350784525e-08 to 4.0655836351784527e-08 seconds.
Warning: Simulation tolerance relaxed to achieve convergence from 4.0655836351784527e-08 to 4.0655836352784528e-08 seconds.
Warning: Simulation tolerance relaxed to achieve convergence from 4.0655836352784528e-08 to 4.0655836353784530e-08 seconds.
Warning: Simulation tolerance relaxed to achieve convergence from 4.0655836353784530e-08 to 4.0655836354784532e-08 seconds.
Warning: Simulation tolerance relaxed to achieve convergence from 4.0655836354784532e-08 to 4.0655836355784534e-08 seconds.
Warning: Simulation tolerance relaxed to achieve convergence from 4.0655836355784534e-08 to 4.0655836356784536e-08 seconds.
Warning: Simulation tolerance relaxed to achieve convergence from 4.0655836356784536e-08 to 4.0655836357784537e-08 seconds.
Warning: Simulation tolerance relaxed to achieve convergence from 4.0655836357784537e-08 to 4.0655836358784539e-08 seconds.
Warning: Simulation tolerance relaxed to achieve convergence from 4.0655836358784539e-08 to 4.0655836359784541e-08 seconds.
Warning: Simulation tolerance relaxed to achieve convergence from 4.0655836359784541e-08 to 4.0655836360784543e-08 seconds.
Warning: Simulation tolerance relaxed to achieve convergence from 4.0655836360784543e-08 to 4.0655836361784545e-08 seconds.
Warning: Simulation tolerance relaxed to achieve convergence from 4.0655836361784545e-08 to 4.0655836362784546e-08 seconds.
Warning: Simulation tolerance relaxed to achieve convergence from 4.0655836362784546e-08 to 4.0655836363784548e-08 seconds.
Warning: Simulation tolerance relaxed to achieve convergence from 4.0655836363784548e-08 to 4.0655836364784550e-08 seconds.
Warning: Simulation tolerance relaxed to achieve convergence from 4.0655836364784550e-08 to 4.0655836365784552e-08 seconds.
Warning: Simulation tolerance relaxed to achieve convergence from 4.0655836365784552e-08 to 4.0655836366784554e-08 seconds.
Warning: Simulation tolerance relaxed to achieve convergence from 4.0655836366784554e-08 to 4.0655836367784555e-08 seconds.
Warning: Simulation tolerance relaxed to achieve convergence from 4.0655836367784555e-08 to 4.0655836368784557e-08 seconds.
Warning: Simulation tolerance relaxed to achieve convergence from 4.0655836368784557e-08 to 4.0655836369784559e-08 seconds.
Warning: Simulation tolerance relaxed to achieve convergence from 4.0655836369784559e-08 to 4.0655836370784561e-08 seconds.
Warning: Simulation tolerance relaxed to achieve convergence from 4.0655836370784561e-08 to 4.0655836371784563e-08 seconds.
Warning: Simulation tolerance relaxed to achieve convergence from 4.0655836371784563e-08 to 4.0655836372784564e-08 seconds.
Warning: Simulation tolerance relaxed to achieve convergence from 4.0655836372784564e-08 to 4.0655836373784566e-08 seconds.
Warning: Simulation tolerance relaxed to achieve convergence from 4.0655836373784566e-08 to 4.0655836374784568e-08 seconds.
Warning: Simulation tolerance relaxed to achieve convergence from 4.0655836374784568e-08 to 4.0655836375784570e-08 seconds.
Warning: Simulation tolerance relaxed to achieve convergence from 4.0655836375784570e-08 to 4.0655836376784572e-08 seconds.
Warning: Simulation tolerance relaxed to achieve convergence from 4.0655836376784572e-08 to 4.0655836377784573e-08 seconds.
Warning: Simulation tolerance relaxed to achieve convergence from 4.0655836377784573e-08 to 4.0655836378784575e-08 seconds.
Warning: Simulation tolerance relaxed to achieve convergence from 4.0655836378784575e-08 to 4.0655836379784577e-08 seconds.
Warning: Simulation tolerance relaxed to achieve convergence from 4.0655836379784577e-08 to 4.0655836380784579e-08 seconds.
Warning: Simulation tolerance relaxed to achieve convergence from 4.0655836380784579e-08 to 4.0655836381784581e-08 seconds.
Warning: Simulation tolerance relaxed to achieve convergence from 4.0655836381784581e-08 to 4.0655836382784582e-08 seconds.
Warning: Simulation tolerance relaxed to achieve convergence from 4.0655836382784582e-08 to 4.0655836383784584e-08 seconds.
Warning: Simulation tolerance relaxed to achieve convergence from 4.0655836383784584e-08 to 4.0655836384784586e-08 seconds.
Warning: Simulation tolerance relaxed to achieve convergence from 4.0655836384784586e-08 to 4.0655836385784588e-08 seconds.
Warning: Simulation tolerance relaxed to achieve convergence from 4.0655836385784588e-08 to 4.0655836386784590e-08 seconds.
Warning: Simulation tolerance relaxed to achieve convergence from 4.0655836386784590e-08 to 4.0655836387784591e-08 seconds.
Warning: Simulation tolerance relaxed to achieve convergence from 4.0655836387784591e-08 to 4.0655836388784593e-08 seconds.
Warning: Simulation tolerance relaxed to achieve convergence from 4.0655836388784593e-08 to 4.0655836389784595e-08 seconds.
Warning: Simulation tolerance relaxed to achieve convergence from 4.0655836389784595e-08 to 4.0655836390784597e-08 seconds.
Warning: Simulation tolerance relaxed to achieve convergence from 4.0655836390784597e-08 to 4.0655836391784599e-08 seconds.
Warning: Simulation tolerance relaxed to achieve convergence from 4.0655836391784599e-08 to 4.0655836392784600e-08 seconds.
Warning: Simulation tolerance relaxed to achieve convergence from 4.0655836392784600e-08 to 4.0655836393784602e-08 seconds.
Warning: Simulation tolerance relaxed to achieve convergence from 4.0655836393784602e-08 to 4.0655836394784604e-08 seconds.
Warning: Simulation tolerance relaxed to achieve convergence from 4.0655836394784604e-08 to 4.0655836395784606e-08 seconds.
Warning: Simulation tolerance relaxed to achieve convergence from 4.0655836395784606e-08 to 4.0655836396784608e-08 seconds.
Warning: Simulation tolerance relaxed to achieve convergence from 4.0655836396784608e-08 to 4.0655836397784610e-08 seconds.
Warning: Simulation tolerance relaxed to achieve convergence from 4.0655836397784610e-08 to 4.0655836398784611e-08 seconds.
Warning: Simulation tolerance relaxed to achieve convergence from 4.0655836398784611e-08 to 4.0655836399784613e-08 seconds.
Warning: Simulation tolerance relaxed to achieve convergence from 4.0655836399784613e-08 to 4.0655836400784615e-08 seconds.
Warning: Simulation tolerance relaxed to achieve convergence from 4.0655836400784615e-08 to 4.0655836401784617e-08 seconds.
Warning: Simulation tolerance relaxed to achieve convergence from 4.0655836401784617e-08 to 4.0655836402784619e-08 seconds.
Warning: Simulation tolerance relaxed to achieve convergence from 4.0655836402784619e-08 to 4.0655836403784620e-08 seconds.
Warning: Simulation tolerance relaxed to achieve convergence from 4.0655836403784620e-08 to 4.0655836404784622e-08 seconds.
Warning: Simulation tolerance relaxed to achieve convergence from 4.0655836404784622e-08 to 4.0655836405784624e-08 seconds.
Warning: Simulation tolerance relaxed to achieve convergence from 4.0655836405784624e-08 to 4.0655836406784626e-08 seconds.
Warning: Simulation tolerance relaxed to achieve convergence from 4.0655836406784626e-08 to 4.0655836407784628e-08 seconds.
Warning: Simulation tolerance relaxed to achieve convergence from 4.0655836407784628e-08 to 4.0655836408784629e-08 seconds.
Warning: Simulation tolerance relaxed to achieve convergence from 4.0655836408784629e-08 to 4.0655836409784631e-08 seconds.
Warning: Simulation tolerance relaxed to achieve convergence from 4.0655836409784631e-08 to 4.0655836410784633e-08 seconds.
Warning: Simulation tolerance relaxed to achieve convergence from 4.0655836410784633e-08 to 4.0655836411784635e-08 seconds.
Warning: Simulation tolerance relaxed to achieve convergence from 4.0655836411784635e-08 to 4.0655836412784637e-08 seconds.
Warning: Simulation tolerance relaxed to achieve convergence from 4.0655836412784637e-08 to 4.0655836413784638e-08 seconds.
Warning: Simulation tolerance relaxed to achieve convergence from 4.0655836413784638e-08 to 4.0655836414784640e-08 seconds.
Warning: Simulation tolerance relaxed to achieve convergence from 4.0655836414784640e-08 to 4.0655836415784642e-08 seconds.
Warning: Simulation tolerance relaxed to achieve convergence from 4.0655836415784642e-08 to 4.0655836416784644e-08 seconds.
Warning: Simulation tolerance relaxed to achieve convergence from 4.0655836416784644e-08 to 4.0655836417784646e-08 seconds.
Warning: Simulation tolerance relaxed to achieve convergence from 4.0655836417784646e-08 to 4.0655836418784647e-08 seconds.
Warning: Simulation tolerance relaxed to achieve convergence from 4.0655836418784647e-08 to 4.0655836419784649e-08 seconds.
Warning: Simulation tolerance relaxed to achieve convergence from 4.0655836419784649e-08 to 4.0655836420784651e-08 seconds.
Warning: Simulation tolerance relaxed to achieve convergence from 4.0655836420784651e-08 to 4.0655836421784653e-08 seconds.
Warning: Simulation tolerance relaxed to achieve convergence from 4.0655836421784653e-08 to 4.0655836422784655e-08 seconds.
Warning: Simulation tolerance relaxed to achieve convergence from 4.0655836422784655e-08 to 4.0655836423784656e-08 seconds.
Warning: Simulation tolerance relaxed to achieve convergence from 4.0655836423784656e-08 to 4.0655836424784658e-08 seconds.
Warning: Simulation tolerance relaxed to achieve convergence from 4.0655836424784658e-08 to 4.0655836425784660e-08 seconds.
Warning: Simulation tolerance relaxed to achieve convergence from 4.0655836425784660e-08 to 4.0655836426784662e-08 seconds.
Warning: Simulation tolerance relaxed to achieve convergence from 4.0655836426784662e-08 to 4.0655836427784664e-08 seconds.
Warning: Simulation tolerance relaxed to achieve convergence from 4.0655836427784664e-08 to 4.0655836428784665e-08 seconds.
Warning: Simulation tolerance relaxed to achieve convergence from 4.0655836428784665e-08 to 4.0655836429784667e-08 seconds.
Warning: Simulation tolerance relaxed to achieve convergence from 4.0655836429784667e-08 to 4.0655836430784669e-08 seconds.
Warning: Simulation tolerance relaxed to achieve convergence from 4.0655836430784669e-08 to 4.0655836431784671e-08 seconds.
Warning: Simulation tolerance relaxed to achieve convergence from 4.0655836431784671e-08 to 4.0655836432784673e-08 seconds.
Warning: Simulation tolerance relaxed to achieve convergence from 4.0655836432784673e-08 to 4.0655836433784674e-08 seconds.
Warning: Simulation tolerance relaxed to achieve convergence from 4.0655836433784674e-08 to 4.0655836434784676e-08 seconds.
Warning: Simulation tolerance relaxed to achieve convergence from 4.0655836434784676e-08 to 4.0655836435784678e-08 seconds.
Warning: Simulation tolerance relaxed to achieve convergence from 4.0655836435784678e-08 to 4.0655836436784680e-08 seconds.
Warning: Simulation tolerance relaxed to achieve convergence from 4.0655836436784680e-08 to 4.0655836437784682e-08 seconds.
Warning: Simulation tolerance relaxed to achieve convergence from 4.0655836437784682e-08 to 4.0655836438784683e-08 seconds.
Warning: Simulation tolerance relaxed to achieve convergence from 4.0655836438784683e-08 to 4.0655836439784685e-08 seconds.
Warning: Simulation tolerance relaxed to achieve convergence from 4.0655836439784685e-08 to 4.0655836440784687e-08 seconds.
Warning: Simulation tolerance relaxed to achieve convergence from 4.0655836440784687e-08 to 4.0655836441784689e-08 seconds.
Warning: Simulation tolerance relaxed to achieve convergence from 4.0655836441784689e-08 to 4.0655836442784691e-08 seconds.
Warning: Simulation tolerance relaxed to achieve convergence from 4.0655836442784691e-08 to 4.0655836443784692e-08 seconds.
Warning: Simulation tolerance relaxed to achieve convergence from 4.0655836443784692e-08 to 4.0655836444784694e-08 seconds.
Warning: Simulation tolerance relaxed to achieve convergence from 4.0655836444784694e-08 to 4.0655836445784696e-08 seconds.
Warning: Simulation tolerance relaxed to achieve convergence from 4.0655836445784696e-08 to 4.0655836446784698e-08 seconds.
Warning: Simulation tolerance relaxed to achieve convergence from 4.0655836446784698e-08 to 4.0655836447784700e-08 seconds.
Warning: Simulation tolerance relaxed to achieve convergence from 4.0655836447784700e-08 to 4.0655836448784701e-08 seconds.
Warning: Simulation tolerance relaxed to achieve convergence from 4.0655836448784701e-08 to 4.0655836449784703e-08 seconds.
Warning: Simulation tolerance relaxed to achieve convergence from 4.0655836449784703e-08 to 4.0655836450784705e-08 seconds.
Warning: Simulation tolerance relaxed to achieve convergence from 4.0655836450784705e-08 to 4.0655836451784707e-08 seconds.
Warning: Simulation tolerance relaxed to achieve convergence from 4.0655836451784707e-08 to 4.0655836452784709e-08 seconds.
Warning: Simulation tolerance relaxed to achieve convergence from 4.0655836452784709e-08 to 4.0655836453784711e-08 seconds.
Warning: Simulation tolerance relaxed to achieve convergence from 4.0655836453784711e-08 to 4.0655836454784712e-08 seconds.
Warning: Simulation tolerance relaxed to achieve convergence from 4.0655836454784712e-08 to 4.0655836455784714e-08 seconds.
Warning: Simulation tolerance relaxed to achieve convergence from 4.0655836455784714e-08 to 4.0655836456784716e-08 seconds.
Warning: Simulation tolerance relaxed to achieve convergence from 4.0655836456784716e-08 to 4.0655836457784718e-08 seconds.
Warning: Simulation tolerance relaxed to achieve convergence from 4.0655836457784718e-08 to 4.0655836458784720e-08 seconds.
Warning: Simulation tolerance relaxed to achieve convergence from 4.0655836458784720e-08 to 4.0655836459784721e-08 seconds.
Warning: Simulation tolerance relaxed to achieve convergence from 4.0655836459784721e-08 to 4.0655836460784723e-08 seconds.
Warning: Simulation tolerance relaxed to achieve convergence from 4.0655836460784723e-08 to 4.0655836461784725e-08 seconds.
Warning: Simulation tolerance relaxed to achieve convergence from 4.0655836461784725e-08 to 4.0655836462784727e-08 seconds.
Warning: Simulation tolerance relaxed to achieve convergence from 4.0655836462784727e-08 to 4.0655836463784729e-08 seconds.
Warning: Simulation tolerance relaxed to achieve convergence from 4.0655836463784729e-08 to 4.0655836464784730e-08 seconds.
Warning: Simulation tolerance relaxed to achieve convergence from 4.0655836464784730e-08 to 4.0655836465784732e-08 seconds.
Warning: Simulation tolerance relaxed to achieve convergence from 4.0655836465784732e-08 to 4.0655836466784734e-08 seconds.
Warning: Simulation tolerance relaxed to achieve convergence from 4.0655836466784734e-08 to 4.0655836467784736e-08 seconds.
Warning: Simulation tolerance relaxed to achieve convergence from 4.0655836467784736e-08 to 4.0655836468784738e-08 seconds.
Warning: Simulation tolerance relaxed to achieve convergence from 4.0655836468784738e-08 to 4.0655836469784739e-08 seconds.
Warning: Simulation tolerance relaxed to achieve convergence from 4.0655836469784739e-08 to 4.0655836470784741e-08 seconds.
Warning: Simulation tolerance relaxed to achieve convergence from 4.0655836470784741e-08 to 4.0655836471784743e-08 seconds.
Warning: Simulation tolerance relaxed to achieve convergence from 4.0655836471784743e-08 to 4.0655836472784745e-08 seconds.
Warning: Simulation tolerance relaxed to achieve convergence from 4.0655836472784745e-08 to 4.0655836473784747e-08 seconds.
Warning: Simulation tolerance relaxed to achieve convergence from 4.0655836473784747e-08 to 4.0655836474784748e-08 seconds.
Warning: Simulation tolerance relaxed to achieve convergence from 4.0655836474784748e-08 to 4.0655836475784750e-08 seconds.
Warning: Simulation tolerance relaxed to achieve convergence from 4.0655836475784750e-08 to 4.0655836476784752e-08 seconds.
Warning: Simulation tolerance relaxed to achieve convergence from 4.0655836476784752e-08 to 4.0655836477784754e-08 seconds.
Warning: Simulation tolerance relaxed to achieve convergence from 4.0655836477784754e-08 to 4.0655836478784756e-08 seconds.
Warning: Simulation tolerance relaxed to achieve convergence from 4.0655836478784756e-08 to 4.0655836479784757e-08 seconds.
Warning: Simulation tolerance relaxed to achieve convergence from 4.0655836479784757e-08 to 4.0655836480784759e-08 seconds.
Warning: Simulation tolerance relaxed to achieve convergence from 4.0655836480784759e-08 to 4.0655836481784761e-08 seconds.
Warning: Simulation tolerance relaxed to achieve convergence from 4.0655836481784761e-08 to 4.0655836482784763e-08 seconds.
Warning: Simulation tolerance relaxed to achieve convergence from 4.0655836482784763e-08 to 4.0655836483784765e-08 seconds.
Warning: Simulation tolerance relaxed to achieve convergence from 4.0655836483784765e-08 to 4.0655836484784766e-08 seconds.
Warning: Simulation tolerance relaxed to achieve convergence from 4.0655836484784766e-08 to 4.0655836485784768e-08 seconds.
Warning: Simulation tolerance relaxed to achieve convergence from 4.0655836485784768e-08 to 4.0655836486784770e-08 seconds.
Warning: Simulation tolerance relaxed to achieve convergence from 4.0655836486784770e-08 to 4.0655836487784772e-08 seconds.
Warning: Simulation tolerance relaxed to achieve convergence from 4.0655836487784772e-08 to 4.0655836488784774e-08 seconds.
Warning: Simulation tolerance relaxed to achieve convergence from 4.0655836488784774e-08 to 4.0655836489784775e-08 seconds.
Warning: Simulation tolerance relaxed to achieve convergence from 4.0655836489784775e-08 to 4.0655836490784777e-08 seconds.
Warning: Simulation tolerance relaxed to achieve convergence from 4.0655836490784777e-08 to 4.0655836491784779e-08 seconds.
Warning: Simulation tolerance relaxed to achieve convergence from 4.0655836491784779e-08 to 4.0655836492784781e-08 seconds.
Warning: Simulation tolerance relaxed to achieve convergence from 4.0655836492784781e-08 to 4.0655836493784783e-08 seconds.
Warning: Simulation tolerance relaxed to achieve convergence from 4.0655836493784783e-08 to 4.0655836494784784e-08 seconds.
Warning: Simulation tolerance relaxed to achieve convergence from 4.0655836494784784e-08 to 4.0655836495784786e-08 seconds.
Warning: Simulation tolerance relaxed to achieve convergence from 4.0655836495784786e-08 to 4.0655836496784788e-08 seconds.
Warning: Simulation tolerance relaxed to achieve convergence from 4.0655836496784788e-08 to 4.0655836497784790e-08 seconds.
Warning: Simulation tolerance relaxed to achieve convergence from 4.0655836497784790e-08 to 4.0655836498784792e-08 seconds.
Warning: Simulation tolerance relaxed to achieve convergence from 4.0655836498784792e-08 to 4.0655836499784793e-08 seconds.
Warning: Simulation tolerance relaxed to achieve convergence from 4.0655836499784793e-08 to 4.0655836500784795e-08 seconds.
Warning: Simulation tolerance relaxed to achieve convergence from 4.0655836500784795e-08 to 4.0655836501784797e-08 seconds.
Warning: Simulation tolerance relaxed to achieve convergence from 4.0655836501784797e-08 to 4.0655836502784799e-08 seconds.
Warning: Simulation tolerance relaxed to achieve convergence from 4.0655836502784799e-08 to 4.0655836503784801e-08 seconds.
Warning: Simulation tolerance relaxed to achieve convergence from 4.0655836503784801e-08 to 4.0655836504784802e-08 seconds.
Warning: Simulation tolerance relaxed to achieve convergence from 4.0655836504784802e-08 to 4.0655836505784804e-08 seconds.
Warning: Simulation tolerance relaxed to achieve convergence from 4.0655836505784804e-08 to 4.0655836506784806e-08 seconds.
Warning: Simulation tolerance relaxed to achieve convergence from 4.0655836506784806e-08 to 4.0655836507784808e-08 seconds.
Warning: Simulation tolerance relaxed to achieve convergence from 4.0655836507784808e-08 to 4.0655836508784810e-08 seconds.
Warning: Simulation tolerance relaxed to achieve convergence from 4.0655836508784810e-08 to 4.0655836509784812e-08 seconds.
Warning: Simulation tolerance relaxed to achieve convergence from 4.0655836509784812e-08 to 4.0655836510784813e-08 seconds.
Warning: Simulation tolerance relaxed to achieve convergence from 4.0655836510784813e-08 to 4.0655836511784815e-08 seconds.
Warning: Simulation tolerance relaxed to achieve convergence from 4.0655836511784815e-08 to 4.0655836512784817e-08 seconds.
Warning: Simulation tolerance relaxed to achieve convergence from 4.0655836512784817e-08 to 4.0655836513784819e-08 seconds.
Warning: Simulation tolerance relaxed to achieve convergence from 4.0655836513784819e-08 to 4.0655836514784821e-08 seconds.
Warning: Simulation tolerance relaxed to achieve convergence from 4.0655836514784821e-08 to 4.0655836515784822e-08 seconds.
Warning: Simulation tolerance relaxed to achieve convergence from 4.0655836515784822e-08 to 4.0655836516784824e-08 seconds.
Warning: Simulation tolerance relaxed to achieve convergence from 4.0655836516784824e-08 to 4.0655836517784826e-08 seconds.
Warning: Simulation tolerance relaxed to achieve convergence from 4.0655836517784826e-08 to 4.0655836518784828e-08 seconds.
Warning: Simulation tolerance relaxed to achieve convergence from 4.0655836518784828e-08 to 4.0655836519784830e-08 seconds.
Warning: Simulation tolerance relaxed to achieve convergence from 4.0655836519784830e-08 to 4.0655836520784831e-08 seconds.
Warning: Simulation tolerance relaxed to achieve convergence from 4.0655836520784831e-08 to 4.0655836521784833e-08 seconds.
Warning: Simulation tolerance relaxed to achieve convergence from 4.0655836521784833e-08 to 4.0655836522784835e-08 seconds.
Warning: Simulation tolerance relaxed to achieve convergence from 4.0655836522784835e-08 to 4.0655836523784837e-08 seconds.
Warning: Simulation tolerance relaxed to achieve convergence from 4.0655836523784837e-08 to 4.0655836524784839e-08 seconds.
Warning: Simulation tolerance relaxed to achieve convergence from 4.0655836524784839e-08 to 4.0655836525784840e-08 seconds.
Warning: Simulation tolerance relaxed to achieve convergence from 4.0655836525784840e-08 to 4.0655836526784842e-08 seconds.
Warning: Simulation tolerance relaxed to achieve convergence from 4.0655836526784842e-08 to 4.0655836527784844e-08 seconds.
Warning: Simulation tolerance relaxed to achieve convergence from 4.0655836527784844e-08 to 4.0655836528784846e-08 seconds.
Warning: Simulation tolerance relaxed to achieve convergence from 4.0655836528784846e-08 to 4.0655836529784848e-08 seconds.
Warning: Simulation tolerance relaxed to achieve convergence from 4.0655836529784848e-08 to 4.0655836530784849e-08 seconds.
Warning: Simulation tolerance relaxed to achieve convergence from 4.0655836530784849e-08 to 4.0655836531784851e-08 seconds.
Warning: Simulation tolerance relaxed to achieve convergence from 4.0655836531784851e-08 to 4.0655836532784853e-08 seconds.
Warning: Simulation tolerance relaxed to achieve convergence from 4.0655836532784853e-08 to 4.0655836533784855e-08 seconds.
Warning: Simulation tolerance relaxed to achieve convergence from 4.0655836533784855e-08 to 4.0655836534784857e-08 seconds.
Warning: Simulation tolerance relaxed to achieve convergence from 4.0655836534784857e-08 to 4.0655836535784858e-08 seconds.
Warning: Simulation tolerance relaxed to achieve convergence from 4.0655836535784858e-08 to 4.0655836536784860e-08 seconds.
Warning: Simulation tolerance relaxed to achieve convergence from 4.0655836536784860e-08 to 4.0655836537784862e-08 seconds.
Warning: Simulation tolerance relaxed to achieve convergence from 4.0655836537784862e-08 to 4.0655836538784864e-08 seconds.
Warning: Simulation tolerance relaxed to achieve convergence from 4.0655836538784864e-08 to 4.0655836539784866e-08 seconds.
Warning: Simulation tolerance relaxed to achieve convergence from 4.0655836539784866e-08 to 4.0655836540784867e-08 seconds.
Warning: Simulation tolerance relaxed to achieve convergence from 4.0655836540784867e-08 to 4.0655836541784869e-08 seconds.
Warning: Simulation tolerance relaxed to achieve convergence from 4.0655836541784869e-08 to 4.0655836542784871e-08 seconds.
Warning: Simulation tolerance relaxed to achieve convergence from 4.0655836542784871e-08 to 4.0655836543784873e-08 seconds.
Warning: Simulation tolerance relaxed to achieve convergence from 4.0655836543784873e-08 to 4.0655836544784875e-08 seconds.
Warning: Simulation tolerance relaxed to achieve convergence from 4.0655836544784875e-08 to 4.0655836545784876e-08 seconds.
Warning: Simulation tolerance relaxed to achieve convergence from 4.0655836545784876e-08 to 4.0655836546784878e-08 seconds.
Warning: Simulation tolerance relaxed to achieve convergence from 4.0655836546784878e-08 to 4.0655836547784880e-08 seconds.
Warning: Simulation tolerance relaxed to achieve convergence from 4.0655836547784880e-08 to 4.0655836548784882e-08 seconds.
Warning: Simulation tolerance relaxed to achieve convergence from 4.0655836548784882e-08 to 4.0655836549784884e-08 seconds.
Warning: Simulation tolerance relaxed to achieve convergence from 4.0655836549784884e-08 to 4.0655836550784885e-08 seconds.
Warning: Simulation tolerance relaxed to achieve convergence from 4.0655836550784885e-08 to 4.0655836551784887e-08 seconds.
Warning: Simulation tolerance relaxed to achieve convergence from 4.0655836551784887e-08 to 4.0655836552784889e-08 seconds.
Warning: Simulation tolerance relaxed to achieve convergence from 4.0655836552784889e-08 to 4.0655836553784891e-08 seconds.
Warning: Simulation tolerance relaxed to achieve convergence from 4.0655836553784891e-08 to 4.0655836554784893e-08 seconds.
Warning: Simulation tolerance relaxed to achieve convergence from 4.0655836554784893e-08 to 4.0655836555784894e-08 seconds.
Warning: Simulation tolerance relaxed to achieve convergence from 4.0655836555784894e-08 to 4.0655836556784896e-08 seconds.
Warning: Simulation tolerance relaxed to achieve convergence from 4.0655836556784896e-08 to 4.0655836557784898e-08 seconds.
Warning: Simulation tolerance relaxed to achieve convergence from 4.0655836557784898e-08 to 4.0655836558784900e-08 seconds.
Warning: Simulation tolerance relaxed to achieve convergence from 4.0655836558784900e-08 to 4.0655836559784902e-08 seconds.
Warning: Simulation tolerance relaxed to achieve convergence from 4.0655836559784902e-08 to 4.0655836560784903e-08 seconds.
Warning: Simulation tolerance relaxed to achieve convergence from 4.0655836560784903e-08 to 4.0655836561784905e-08 seconds.
Warning: Simulation tolerance relaxed to achieve convergence from 4.0655836561784905e-08 to 4.0655836562784907e-08 seconds.
Warning: Simulation tolerance relaxed to achieve convergence from 4.0655836562784907e-08 to 4.0655836563784909e-08 seconds.
Warning: Simulation tolerance relaxed to achieve convergence from 4.0655836563784909e-08 to 4.0655836564784911e-08 seconds.
Warning: Simulation tolerance relaxed to achieve convergence from 4.0655836564784911e-08 to 4.0655836565784913e-08 seconds.
Warning: Simulation tolerance relaxed to achieve convergence from 4.0655836565784913e-08 to 4.0655836566784914e-08 seconds.
Warning: Simulation tolerance relaxed to achieve convergence from 4.0655836566784914e-08 to 4.0655836567784916e-08 seconds.
Warning: Simulation tolerance relaxed to achieve convergence from 4.0655836567784916e-08 to 4.0655836568784918e-08 seconds.
Warning: Simulation tolerance relaxed to achieve convergence from 4.0655836568784918e-08 to 4.0655836569784920e-08 seconds.
Warning: Simulation tolerance relaxed to achieve convergence from 4.0655836569784920e-08 to 4.0655836570784922e-08 seconds.
Warning: Simulation tolerance relaxed to achieve convergence from 4.0655836570784922e-08 to 4.0655836571784923e-08 seconds.
Warning: Simulation tolerance relaxed to achieve convergence from 4.0655836571784923e-08 to 4.0655836572784925e-08 seconds.
Warning: Simulation tolerance relaxed to achieve convergence from 4.0655836572784925e-08 to 4.0655836573784927e-08 seconds.
Warning: Simulation tolerance relaxed to achieve convergence from 4.0655836573784927e-08 to 4.0655836574784929e-08 seconds.
Warning: Simulation tolerance relaxed to achieve convergence from 4.0655836574784929e-08 to 4.0655836575784931e-08 seconds.
Warning: Simulation tolerance relaxed to achieve convergence from 4.0655836575784931e-08 to 4.0655836576784932e-08 seconds.
Warning: Simulation tolerance relaxed to achieve convergence from 4.0655836576784932e-08 to 4.0655836577784934e-08 seconds.
Warning: Simulation tolerance relaxed to achieve convergence from 4.0655836577784934e-08 to 4.0655836578784936e-08 seconds.
Warning: Simulation tolerance relaxed to achieve convergence from 4.0655836578784936e-08 to 4.0655836579784938e-08 seconds.
Warning: Simulation tolerance relaxed to achieve convergence from 4.0655836579784938e-08 to 4.0655836580784940e-08 seconds.
Warning: Simulation tolerance relaxed to achieve convergence from 4.0655836580784940e-08 to 4.0655836581784941e-08 seconds.
Warning: Simulation tolerance relaxed to achieve convergence from 4.0655836581784941e-08 to 4.0655836582784943e-08 seconds.
Warning: Simulation tolerance relaxed to achieve convergence from 4.0655836582784943e-08 to 4.0655836583784945e-08 seconds.
Warning: Simulation tolerance relaxed to achieve convergence from 4.0655836583784945e-08 to 4.0655836584784947e-08 seconds.
Warning: Simulation tolerance relaxed to achieve convergence from 4.0655836584784947e-08 to 4.0655836585784949e-08 seconds.
Warning: Simulation tolerance relaxed to achieve convergence from 4.0655836585784949e-08 to 4.0655836586784950e-08 seconds.
Warning: Simulation tolerance relaxed to achieve convergence from 4.0655836586784950e-08 to 4.0655836587784952e-08 seconds.
Warning: Simulation tolerance relaxed to achieve convergence from 4.0655836587784952e-08 to 4.0655836588784954e-08 seconds.
Warning: Simulation tolerance relaxed to achieve convergence from 4.0655836588784954e-08 to 4.0655836589784956e-08 seconds.
Warning: Simulation tolerance relaxed to achieve convergence from 4.0655836589784956e-08 to 4.0655836590784958e-08 seconds.
Warning: Simulation tolerance relaxed to achieve convergence from 4.0655836590784958e-08 to 4.0655836591784959e-08 seconds.
Warning: Simulation tolerance relaxed to achieve convergence from 4.0655836591784959e-08 to 4.0655836592784961e-08 seconds.
Warning: Simulation tolerance relaxed to achieve convergence from 4.0655836592784961e-08 to 4.0655836593784963e-08 seconds.
Warning: Simulation tolerance relaxed to achieve convergence from 4.0655836593784963e-08 to 4.0655836594784965e-08 seconds.
Warning: Simulation tolerance relaxed to achieve convergence from 4.0655836594784965e-08 to 4.0655836595784967e-08 seconds.
Warning: Simulation tolerance relaxed to achieve convergence from 4.0655836595784967e-08 to 4.0655836596784968e-08 seconds.
Warning: Simulation tolerance relaxed to achieve convergence from 4.0655836596784968e-08 to 4.0655836597784970e-08 seconds.
Warning: Simulation tolerance relaxed to achieve convergence from 4.0655836597784970e-08 to 4.0655836598784972e-08 seconds.
Warning: Simulation tolerance relaxed to achieve convergence from 4.0655836598784972e-08 to 4.0655836599784974e-08 seconds.
Warning: Simulation tolerance relaxed to achieve convergence from 4.0655836599784974e-08 to 4.0655836600784976e-08 seconds.
Warning: Simulation tolerance relaxed to achieve convergence from 4.0655836600784976e-08 to 4.0655836601784977e-08 seconds.
Warning: Simulation tolerance relaxed to achieve convergence from 4.0655836601784977e-08 to 4.0655836602784979e-08 seconds.
Warning: Simulation tolerance relaxed to achieve convergence from 4.0655836602784979e-08 to 4.0655836603784981e-08 seconds.
Warning: Simulation tolerance relaxed to achieve convergence from 4.0655836603784981e-08 to 4.0655836604784983e-08 seconds.
Warning: Simulation tolerance relaxed to achieve convergence from 4.0655836604784983e-08 to 4.0655836605784985e-08 seconds.
Warning: Simulation tolerance relaxed to achieve convergence from 4.0655836605784985e-08 to 4.0655836606784986e-08 seconds.
Warning: Simulation tolerance relaxed to achieve convergence from 4.0655836606784986e-08 to 4.0655836607784988e-08 seconds.
Warning: Simulation tolerance relaxed to achieve convergence from 4.0655836607784988e-08 to 4.0655836608784990e-08 seconds.
Warning: Simulation tolerance relaxed to achieve convergence from 4.0655836608784990e-08 to 4.0655836609784992e-08 seconds.
Warning: Simulation tolerance relaxed to achieve convergence from 4.0655836609784992e-08 to 4.0655836610784994e-08 seconds.
Warning: Simulation tolerance relaxed to achieve convergence from 4.0655836610784994e-08 to 4.0655836611784995e-08 seconds.
Warning: Simulation tolerance relaxed to achieve convergence from 4.0655836611784995e-08 to 4.0655836612784997e-08 seconds.
Warning: Simulation tolerance relaxed to achieve convergence from 4.0655836612784997e-08 to 4.0655836613784999e-08 seconds.
Warning: Simulation tolerance relaxed to achieve convergence from 4.0655836613784999e-08 to 4.0655836614785001e-08 seconds.
Warning: Simulation tolerance relaxed to achieve convergence from 4.0655836614785001e-08 to 4.0655836615785003e-08 seconds.
Warning: Simulation tolerance relaxed to achieve convergence from 4.0655836615785003e-08 to 4.0655836616785004e-08 seconds.
Warning: Simulation tolerance relaxed to achieve convergence from 4.0655836616785004e-08 to 4.0655836617785006e-08 seconds.
Warning: Simulation tolerance relaxed to achieve convergence from 4.0655836617785006e-08 to 4.0655836618785008e-08 seconds.
Warning: Simulation tolerance relaxed to achieve convergence from 4.0655836618785008e-08 to 4.0655836619785010e-08 seconds.
Warning: Simulation tolerance relaxed to achieve convergence from 4.0655836619785010e-08 to 4.0655836620785012e-08 seconds.
Warning: Simulation tolerance relaxed to achieve convergence from 4.0655836620785012e-08 to 4.0655836621785014e-08 seconds.
Warning: Simulation tolerance relaxed to achieve convergence from 4.0655836621785014e-08 to 4.0655836622785015e-08 seconds.
Warning: Simulation tolerance relaxed to achieve convergence from 4.0655836622785015e-08 to 4.0655836623785017e-08 seconds.
Warning: Simulation tolerance relaxed to achieve convergence from 4.0655836623785017e-08 to 4.0655836624785019e-08 seconds.
Warning: Simulation tolerance relaxed to achieve convergence from 4.0655836624785019e-08 to 4.0655836625785021e-08 seconds.
Warning: Simulation tolerance relaxed to achieve convergence from 4.0655836625785021e-08 to 4.0655836626785023e-08 seconds.
Warning: Simulation tolerance relaxed to achieve convergence from 4.0655836626785023e-08 to 4.0655836627785024e-08 seconds.
Warning: Simulation tolerance relaxed to achieve convergence from 4.0655836627785024e-08 to 4.0655836628785026e-08 seconds.
Warning: Simulation tolerance relaxed to achieve convergence from 4.0655836628785026e-08 to 4.0655836629785028e-08 seconds.
Warning: Simulation tolerance relaxed to achieve convergence from 4.0655836629785028e-08 to 4.0655836630785030e-08 seconds.
Warning: Simulation tolerance relaxed to achieve convergence from 4.0655836630785030e-08 to 4.0655836631785032e-08 seconds.
Warning: Simulation tolerance relaxed to achieve convergence from 4.0655836631785032e-08 to 4.0655836632785033e-08 seconds.
Warning: Simulation tolerance relaxed to achieve convergence from 4.0655836632785033e-08 to 4.0655836633785035e-08 seconds.
Warning: Simulation tolerance relaxed to achieve convergence from 4.0655836633785035e-08 to 4.0655836634785037e-08 seconds.
Warning: Simulation tolerance relaxed to achieve convergence from 4.0655836634785037e-08 to 4.0655836635785039e-08 seconds.
Warning: Simulation tolerance relaxed to achieve convergence from 4.0655836635785039e-08 to 4.0655836636785041e-08 seconds.
Warning: Simulation tolerance relaxed to achieve convergence from 4.0655836636785041e-08 to 4.0655836637785042e-08 seconds.
Warning: Simulation tolerance relaxed to achieve convergence from 4.0655836637785042e-08 to 4.0655836638785044e-08 seconds.
Warning: Simulation tolerance relaxed to achieve convergence from 4.0655836638785044e-08 to 4.0655836639785046e-08 seconds.
Warning: Simulation tolerance relaxed to achieve convergence from 4.0655836639785046e-08 to 4.0655836640785048e-08 seconds.
Warning: Simulation tolerance relaxed to achieve convergence from 4.0655836640785048e-08 to 4.0655836641785050e-08 seconds.
Warning: Simulation tolerance relaxed to achieve convergence from 4.0655836641785050e-08 to 4.0655836642785051e-08 seconds.
Warning: Simulation tolerance relaxed to achieve convergence from 4.0655836642785051e-08 to 4.0655836643785053e-08 seconds.
Warning: Simulation tolerance relaxed to achieve convergence from 4.0655836643785053e-08 to 4.0655836644785055e-08 seconds.
Warning: Simulation tolerance relaxed to achieve convergence from 4.0655836644785055e-08 to 4.0655836645785057e-08 seconds.
Warning: Simulation tolerance relaxed to achieve convergence from 4.0655836645785057e-08 to 4.0655836646785059e-08 seconds.
Warning: Simulation tolerance relaxed to achieve convergence from 4.0655836646785059e-08 to 4.0655836647785060e-08 seconds.
Warning: Simulation tolerance relaxed to achieve convergence from 4.0655836647785060e-08 to 4.0655836648785062e-08 seconds.
Warning: Simulation tolerance relaxed to achieve convergence from 4.0655836648785062e-08 to 4.0655836649785064e-08 seconds.
Warning: Simulation tolerance relaxed to achieve convergence from 4.0655836649785064e-08 to 4.0655836650785066e-08 seconds.
Warning: Simulation tolerance relaxed to achieve convergence from 4.0655836650785066e-08 to 4.0655836651785068e-08 seconds.
Warning: Simulation tolerance relaxed to achieve convergence from 4.0655836651785068e-08 to 4.0655836652785069e-08 seconds.
Warning: Simulation tolerance relaxed to achieve convergence from 4.0655836652785069e-08 to 4.0655836653785071e-08 seconds.
Warning: Simulation tolerance relaxed to achieve convergence from 4.0655836653785071e-08 to 4.0655836654785073e-08 seconds.
Warning: Simulation tolerance relaxed to achieve convergence from 4.0655836654785073e-08 to 4.0655836655785075e-08 seconds.
Warning: Simulation tolerance relaxed to achieve convergence from 4.0655836655785075e-08 to 4.0655836656785077e-08 seconds.
Warning: Simulation tolerance relaxed to achieve convergence from 4.0655836656785077e-08 to 4.0655836657785078e-08 seconds.
Warning: Simulation tolerance relaxed to achieve convergence from 4.0655836657785078e-08 to 4.0655836658785080e-08 seconds.
Warning: Simulation tolerance relaxed to achieve convergence from 4.0655836658785080e-08 to 4.0655836659785082e-08 seconds.
Warning: Simulation tolerance relaxed to achieve convergence from 4.0655836659785082e-08 to 4.0655836660785084e-08 seconds.
Warning: Simulation tolerance relaxed to achieve convergence from 4.0655836660785084e-08 to 4.0655836661785086e-08 seconds.
Warning: Simulation tolerance relaxed to achieve convergence from 4.0655836661785086e-08 to 4.0655836662785087e-08 seconds.
Warning: Simulation tolerance relaxed to achieve convergence from 4.0655836662785087e-08 to 4.0655836663785089e-08 seconds.
Warning: Simulation tolerance relaxed to achieve convergence from 4.0655836663785089e-08 to 4.0655836664785091e-08 seconds.
Warning: Simulation tolerance relaxed to achieve convergence from 4.0655836664785091e-08 to 4.0655836665785093e-08 seconds.
Warning: Simulation tolerance relaxed to achieve convergence from 4.0655836665785093e-08 to 4.0655836666785095e-08 seconds.
Warning: Simulation tolerance relaxed to achieve convergence from 4.0655836666785095e-08 to 4.0655836667785096e-08 seconds.
Warning: Simulation tolerance relaxed to achieve convergence from 4.0655836667785096e-08 to 4.0655836668785098e-08 seconds.
Warning: Simulation tolerance relaxed to achieve convergence from 4.0655836668785098e-08 to 4.0655836669785100e-08 seconds.
Warning: Simulation tolerance relaxed to achieve convergence from 4.0655836669785100e-08 to 4.0655836670785102e-08 seconds.
Warning: Simulation tolerance relaxed to achieve convergence from 4.0655836670785102e-08 to 4.0655836671785104e-08 seconds.
Warning: Simulation tolerance relaxed to achieve convergence from 4.0655836671785104e-08 to 4.0655836672785105e-08 seconds.
Warning: Simulation tolerance relaxed to achieve convergence from 4.0655836672785105e-08 to 4.0655836673785107e-08 seconds.
Warning: Simulation tolerance relaxed to achieve convergence from 4.0655836673785107e-08 to 4.0655836674785109e-08 seconds.
Warning: Simulation tolerance relaxed to achieve convergence from 4.0655836674785109e-08 to 4.0655836675785111e-08 seconds.
Warning: Simulation tolerance relaxed to achieve convergence from 4.0655836675785111e-08 to 4.0655836676785113e-08 seconds.
Warning: Simulation tolerance relaxed to achieve convergence from 4.0655836676785113e-08 to 4.0655836677785115e-08 seconds.
Warning: Simulation tolerance relaxed to achieve convergence from 4.0655836677785115e-08 to 4.0655836678785116e-08 seconds.
Warning: Simulation tolerance relaxed to achieve convergence from 4.0655836678785116e-08 to 4.0655836679785118e-08 seconds.
Warning: Simulation tolerance relaxed to achieve convergence from 4.0655836679785118e-08 to 4.0655836680785120e-08 seconds.
Warning: Simulation tolerance relaxed to achieve convergence from 4.0655836680785120e-08 to 4.0655836681785122e-08 seconds.
Warning: Simulation tolerance relaxed to achieve convergence from 4.0655836681785122e-08 to 4.0655836682785124e-08 seconds.
Warning: Simulation tolerance relaxed to achieve convergence from 4.0655836682785124e-08 to 4.0655836683785125e-08 seconds.
Warning: Simulation tolerance relaxed to achieve convergence from 4.0655836683785125e-08 to 4.0655836684785127e-08 seconds.
Warning: Simulation tolerance relaxed to achieve convergence from 4.0655836684785127e-08 to 4.0655836685785129e-08 seconds.
Warning: Simulation tolerance relaxed to achieve convergence from 4.0655836685785129e-08 to 4.0655836686785131e-08 seconds.
Warning: Simulation tolerance relaxed to achieve convergence from 4.0655836686785131e-08 to 4.0655836687785133e-08 seconds.
Warning: Simulation tolerance relaxed to achieve convergence from 4.0655836687785133e-08 to 4.0655836688785134e-08 seconds.
Warning: Simulation tolerance relaxed to achieve convergence from 4.0655836688785134e-08 to 4.0655836689785136e-08 seconds.
Warning: Simulation tolerance relaxed to achieve convergence from 4.0655836689785136e-08 to 4.0655836690785138e-08 seconds.
Warning: Simulation tolerance relaxed to achieve convergence from 4.0655836690785138e-08 to 4.0655836691785140e-08 seconds.
Warning: Simulation tolerance relaxed to achieve convergence from 4.0655836691785140e-08 to 4.0655836692785142e-08 seconds.
Warning: Simulation tolerance relaxed to achieve convergence from 4.0655836692785142e-08 to 4.0655836693785143e-08 seconds.
Warning: Simulation tolerance relaxed to achieve convergence from 4.0655836693785143e-08 to 4.0655836694785145e-08 seconds.
Warning: Simulation tolerance relaxed to achieve convergence from 4.0655836694785145e-08 to 4.0655836695785147e-08 seconds.
Warning: Simulation tolerance relaxed to achieve convergence from 4.0655836695785147e-08 to 4.0655836696785149e-08 seconds.
Warning: Simulation tolerance relaxed to achieve convergence from 4.0655836696785149e-08 to 4.0655836697785151e-08 seconds.
Warning: Simulation tolerance relaxed to achieve convergence from 4.0655836697785151e-08 to 4.0655836698785152e-08 seconds.
Warning: Simulation tolerance relaxed to achieve convergence from 4.0655836698785152e-08 to 4.0655836699785154e-08 seconds.
Warning: Simulation tolerance relaxed to achieve convergence from 4.0655836699785154e-08 to 4.0655836700785156e-08 seconds.
Warning: Simulation tolerance relaxed to achieve convergence from 4.0655836700785156e-08 to 4.0655836701785158e-08 seconds.
Warning: Simulation tolerance relaxed to achieve convergence from 4.0655836701785158e-08 to 4.0655836702785160e-08 seconds.
Warning: Simulation tolerance relaxed to achieve convergence from 4.0655836702785160e-08 to 4.0655836703785161e-08 seconds.
Warning: Simulation tolerance relaxed to achieve convergence from 4.0655836703785161e-08 to 4.0655836704785163e-08 seconds.
Warning: Simulation tolerance relaxed to achieve convergence from 4.0655836704785163e-08 to 4.0655836705785165e-08 seconds.
Warning: Simulation tolerance relaxed to achieve convergence from 4.0655836705785165e-08 to 4.0655836706785167e-08 seconds.
Warning: Simulation tolerance relaxed to achieve convergence from 4.0655836706785167e-08 to 4.0655836707785169e-08 seconds.
Warning: Simulation tolerance relaxed to achieve convergence from 4.0655836707785169e-08 to 4.0655836708785170e-08 seconds.
Warning: Simulation tolerance relaxed to achieve convergence from 4.0655836708785170e-08 to 4.0655836709785172e-08 seconds.
Warning: Simulation tolerance relaxed to achieve convergence from 4.0655836709785172e-08 to 4.0655836710785174e-08 seconds.
Warning: Simulation tolerance relaxed to achieve convergence from 4.0655836710785174e-08 to 4.0655836711785176e-08 seconds.
Warning: Simulation tolerance relaxed to achieve convergence from 4.0655836711785176e-08 to 4.0655836712785178e-08 seconds.
Warning: Simulation tolerance relaxed to achieve convergence from 4.0655836712785178e-08 to 4.0655836713785179e-08 seconds.
Warning: Simulation tolerance relaxed to achieve convergence from 4.0655836713785179e-08 to 4.0655836714785181e-08 seconds.
Warning: Simulation tolerance relaxed to achieve convergence from 4.0655836714785181e-08 to 4.0655836715785183e-08 seconds.
Warning: Simulation tolerance relaxed to achieve convergence from 4.0655836715785183e-08 to 4.0655836716785185e-08 seconds.
Warning: Simulation tolerance relaxed to achieve convergence from 4.0655836716785185e-08 to 4.0655836717785187e-08 seconds.
Warning: Simulation tolerance relaxed to achieve convergence from 4.0655836717785187e-08 to 4.0655836718785188e-08 seconds.
Warning: Simulation tolerance relaxed to achieve convergence from 4.0655836718785188e-08 to 4.0655836719785190e-08 seconds.
Warning: Simulation tolerance relaxed to achieve convergence from 4.0655836719785190e-08 to 4.0655836720785192e-08 seconds.
Warning: Simulation tolerance relaxed to achieve convergence from 4.0655836720785192e-08 to 4.0655836721785194e-08 seconds.
Warning: Simulation tolerance relaxed to achieve convergence from 4.0655836721785194e-08 to 4.0655836722785196e-08 seconds.
Warning: Simulation tolerance relaxed to achieve convergence from 4.0655836722785196e-08 to 4.0655836723785197e-08 seconds.
Warning: Simulation tolerance relaxed to achieve convergence from 4.0655836723785197e-08 to 4.0655836724785199e-08 seconds.
Warning: Simulation tolerance relaxed to achieve convergence from 4.0655836724785199e-08 to 4.0655836725785201e-08 seconds.
Warning: Simulation tolerance relaxed to achieve convergence from 4.0655836725785201e-08 to 4.0655836726785203e-08 seconds.
Warning: Simulation tolerance relaxed to achieve convergence from 4.0655836726785203e-08 to 4.0655836727785205e-08 seconds.
Warning: Simulation tolerance relaxed to achieve convergence from 4.0655836727785205e-08 to 4.0655836728785206e-08 seconds.
Warning: Simulation tolerance relaxed to achieve convergence from 4.0655836728785206e-08 to 4.0655836729785208e-08 seconds.
Warning: Simulation tolerance relaxed to achieve convergence from 4.0655836729785208e-08 to 4.0655836730785210e-08 seconds.
Warning: Simulation tolerance relaxed to achieve convergence from 4.0655836730785210e-08 to 4.0655836731785212e-08 seconds.
Warning: Simulation tolerance relaxed to achieve convergence from 4.0655836731785212e-08 to 4.0655836732785214e-08 seconds.
Warning: Simulation tolerance relaxed to achieve convergence from 4.0655836732785214e-08 to 4.0655836733785216e-08 seconds.
Warning: Simulation tolerance relaxed to achieve convergence from 4.0655836733785216e-08 to 4.0655836734785217e-08 seconds.
Warning: Simulation tolerance relaxed to achieve convergence from 4.0655836734785217e-08 to 4.0655836735785219e-08 seconds.
Warning: Simulation tolerance relaxed to achieve convergence from 4.0655836735785219e-08 to 4.0655836736785221e-08 seconds.
Warning: Simulation tolerance relaxed to achieve convergence from 4.0655836736785221e-08 to 4.0655836737785223e-08 seconds.
Warning: Simulation tolerance relaxed to achieve convergence from 4.0655836737785223e-08 to 4.0655836738785225e-08 seconds.
Warning: Simulation tolerance relaxed to achieve convergence from 4.0655836738785225e-08 to 4.0655836739785226e-08 seconds.
Warning: Simulation tolerance relaxed to achieve convergence from 4.0655836739785226e-08 to 4.0655836740785228e-08 seconds.
Warning: Simulation tolerance relaxed to achieve convergence from 4.0655836740785228e-08 to 4.0655836741785230e-08 seconds.
Warning: Simulation tolerance relaxed to achieve convergence from 4.0655836741785230e-08 to 4.0655836742785232e-08 seconds.
Warning: Simulation tolerance relaxed to achieve convergence from 4.0655836742785232e-08 to 4.0655836743785234e-08 seconds.
Warning: Simulation tolerance relaxed to achieve convergence from 4.0655836743785234e-08 to 4.0655836744785235e-08 seconds.
Warning: Simulation tolerance relaxed to achieve convergence from 4.0655836744785235e-08 to 4.0655836745785237e-08 seconds.
Warning: Simulation tolerance relaxed to achieve convergence from 4.0655836745785237e-08 to 4.0655836746785239e-08 seconds.
Warning: Simulation tolerance relaxed to achieve convergence from 4.0655836746785239e-08 to 4.0655836747785241e-08 seconds.
Warning: Simulation tolerance relaxed to achieve convergence from 4.0655836747785241e-08 to 4.0655836748785243e-08 seconds.
Warning: Simulation tolerance relaxed to achieve convergence from 4.0655836748785243e-08 to 4.0655836749785244e-08 seconds.
Warning: Simulation tolerance relaxed to achieve convergence from 4.0655836749785244e-08 to 4.0655836750785246e-08 seconds.
Warning: Simulation tolerance relaxed to achieve convergence from 4.0655836750785246e-08 to 4.0655836751785248e-08 seconds.
Warning: Simulation tolerance relaxed to achieve convergence from 4.0655836751785248e-08 to 4.0655836752785250e-08 seconds.
Warning: Simulation tolerance relaxed to achieve convergence from 4.0655836752785250e-08 to 4.0655836753785252e-08 seconds.
Warning: Simulation tolerance relaxed to achieve convergence from 4.0655836753785252e-08 to 4.0655836754785253e-08 seconds.
Warning: Simulation tolerance relaxed to achieve convergence from 4.0655836754785253e-08 to 4.0655836755785255e-08 seconds.
Warning: Simulation tolerance relaxed to achieve convergence from 4.0655836755785255e-08 to 4.0655836756785257e-08 seconds.
Warning: Simulation tolerance relaxed to achieve convergence from 4.0655836756785257e-08 to 4.0655836757785259e-08 seconds.
Warning: Simulation tolerance relaxed to achieve convergence from 4.0655836757785259e-08 to 4.0655836758785261e-08 seconds.
Warning: Simulation tolerance relaxed to achieve convergence from 4.0655836758785261e-08 to 4.0655836759785262e-08 seconds.
Warning: Simulation tolerance relaxed to achieve convergence from 4.0655836759785262e-08 to 4.0655836760785264e-08 seconds.
Warning: Simulation tolerance relaxed to achieve convergence from 4.0655836760785264e-08 to 4.0655836761785266e-08 seconds.
Warning: Simulation tolerance relaxed to achieve convergence from 4.0655836761785266e-08 to 4.0655836762785268e-08 seconds.
Warning: Simulation tolerance relaxed to achieve convergence from 4.0655836762785268e-08 to 4.0655836763785270e-08 seconds.
Warning: Simulation tolerance relaxed to achieve convergence from 4.0655836763785270e-08 to 4.0655836764785271e-08 seconds.
Warning: Simulation tolerance relaxed to achieve convergence from 4.0655836764785271e-08 to 4.0655836765785273e-08 seconds.
Warning: Simulation tolerance relaxed to achieve convergence from 4.0655836765785273e-08 to 4.0655836766785275e-08 seconds.
Warning: Simulation tolerance relaxed to achieve convergence from 4.0655836766785275e-08 to 4.0655836767785277e-08 seconds.
Warning: Simulation tolerance relaxed to achieve convergence from 4.0655836767785277e-08 to 4.0655836768785279e-08 seconds.
Warning: Simulation tolerance relaxed to achieve convergence from 4.0655836768785279e-08 to 4.0655836769785280e-08 seconds.
Warning: Simulation tolerance relaxed to achieve convergence from 4.0655836769785280e-08 to 4.0655836770785282e-08 seconds.
Warning: Simulation tolerance relaxed to achieve convergence from 4.0655836770785282e-08 to 4.0655836771785284e-08 seconds.
Warning: Simulation tolerance relaxed to achieve convergence from 4.0655836771785284e-08 to 4.0655836772785286e-08 seconds.
Warning: Simulation tolerance relaxed to achieve convergence from 4.0655836772785286e-08 to 4.0655836773785288e-08 seconds.
Warning: Simulation tolerance relaxed to achieve convergence from 4.0655836773785288e-08 to 4.0655836774785289e-08 seconds.
Warning: Simulation tolerance relaxed to achieve convergence from 4.0655836774785289e-08 to 4.0655836775785291e-08 seconds.
Warning: Simulation tolerance relaxed to achieve convergence from 4.0655836775785291e-08 to 4.0655836776785293e-08 seconds.
Warning: Simulation tolerance relaxed to achieve convergence from 4.0655836776785293e-08 to 4.0655836777785295e-08 seconds.
Warning: Simulation tolerance relaxed to achieve convergence from 4.0655836777785295e-08 to 4.0655836778785297e-08 seconds.
Warning: Simulation tolerance relaxed to achieve convergence from 4.0655836778785297e-08 to 4.0655836779785298e-08 seconds.
Warning: Simulation tolerance relaxed to achieve convergence from 4.0655836779785298e-08 to 4.0655836780785300e-08 seconds.
Warning: Simulation tolerance relaxed to achieve convergence from 4.0655836780785300e-08 to 4.0655836781785302e-08 seconds.
Warning: Simulation tolerance relaxed to achieve convergence from 4.0655836781785302e-08 to 4.0655836782785304e-08 seconds.
Warning: Simulation tolerance relaxed to achieve convergence from 4.0655836782785304e-08 to 4.0655836783785306e-08 seconds.
Warning: Simulation tolerance relaxed to achieve convergence from 4.0655836783785306e-08 to 4.0655836784785307e-08 seconds.
Warning: Simulation tolerance relaxed to achieve convergence from 4.0655836784785307e-08 to 4.0655836784785307e-08 seconds.

Simulation stopped by user.
Total elapsed time: 7.114 seconds.

Files loaded:
C:\Users\Shah\Desktop\university\electrium\esc-w26\sims\input-protection\typical-application.net
C:\Users\Shah\Desktop\university\electrium\esc-w26\sims\input-protection\SiR870DP_PS.txt
C:\Users\Shah\AppData\Local\LTspice\lib\sub\LTC4368-2.sub

